44259105
  -OEChem-02182403542D

 94 99  0     1  0  0  0  0  0999 V2000
    6.0010   -4.2500    0.0000 O   0  0  0  0  0  0  0  0  0  0  0  0
    6.0010   -1.2500    0.0000 O   0  0  0  0  0  0  0  0  0  0  0  0
    4.2690   -4.2500    0.0000 O   0  0  0  0  0  0  0  0  0  0  0  0
    7.7331   -1.2500    0.0000 O   0  0  0  0  0  0  0  0  0  0  0  0
    8.5991    1.2500    0.0000 O   0  0  0  0  0  0  0  0  0  0  0  0
    7.7331   -3.2500    0.0000 O   0  0  0  0  0  0  0  0  0  0  0  0
    4.2690   -3.2500    0.0000 O   0  0  0  0  0  0  0  0  0  0  0  0
    6.0010   -6.2500    0.0000 O   0  0  0  0  0  0  0  0  0  0  0  0
    4.2690   -7.2500    0.0000 O   0  0  0  0  0  0  0  0  0  0  0  0
    2.5369   -6.2500    0.0000 O   0  0  0  0  0  0  0  0  0  0  0  0
    9.4651   -1.2500    0.0000 O   0  0  0  0  0  0  0  0  0  0  0  0
   11.1972   -0.2500    0.0000 O   0  0  0  0  0  0  0  0  0  0  0  0
    9.4651    2.7500    0.0000 O   0  0  0  0  0  0  0  0  0  0  0  0
   11.1972    1.7500    0.0000 O   0  0  0  0  0  0  0  0  0  0  0  0
    2.5369   -3.2500    0.0000 O   0  0  0  0  0  0  0  0  0  0  0  0
    7.7331    4.7500    0.0000 O   0  0  0  0  0  0  0  0  0  0  0  0
    7.7331    1.7500    0.0000 O   0  0  0  0  0  0  0  0  0  0  0  0
    5.9847    1.7154    0.0000 O   0  0  0  0  0  0  0  0  0  0  0  0
    4.2030    4.7742    0.0000 O   0  0  0  0  0  0  0  0  0  0  0  0
   10.3312    7.2500    0.0000 O   0  0  0  0  0  0  0  0  0  0  0  0
   12.0632    6.2500    0.0000 O   0  0  0  0  0  0  0  0  0  0  0  0
    6.0010   -3.2500    0.0000 C   0  0  2  0  0  0  0  0  0  0  0  0
    6.8671   -2.7500    0.0000 C   0  0  3  0  0  0  0  0  0  0  0  0
    5.1350   -2.7500    0.0000 C   0  0  2  0  0  0  0  0  0  0  0  0
    6.8671   -1.7500    0.0000 C   0  0  1  0  0  0  0  0  0  0  0  0
    5.1350   -1.7500    0.0000 C   0  0  3  0  0  0  0  0  0  0  0  0
    5.1350   -4.7500    0.0000 C   0  0  2  0  0  0  0  0  0  0  0  0
    5.1350   -5.7500    0.0000 C   0  0  3  0  0  0  0  0  0  0  0  0
    4.2690   -6.2500    0.0000 C   0  0  2  0  0  0  0  0  0  0  0  0
    3.4030   -5.7500    0.0000 C   0  0  1  0  0  0  0  0  0  0  0  0
    8.5991    0.2500    0.0000 C   0  0  3  0  0  0  0  0  0  0  0  0
    3.4030   -4.7500    0.0000 C   0  0  3  0  0  0  0  0  0  0  0  0
    9.4651   -0.2500    0.0000 C   0  0  1  0  0  0  0  0  0  0  0  0
   10.3312    0.2500    0.0000 C   0  0  3  0  0  0  0  0  0  0  0  0
    7.7331   -0.2500    0.0000 C   0  0  0  0  0  0  0  0  0  0  0  0
   10.3312    1.2500    0.0000 C   0  0  3  0  0  0  0  0  0  0  0  0
    9.4651    1.7500    0.0000 C   0  0  1  0  0  0  0  0  0  0  0  0
    4.2690   -1.2500    0.0000 C   0  0  0  0  0  0  0  0  0  0  0  0
    2.5369   -4.2500    0.0000 C   0  0  0  0  0  0  0  0  0  0  0  0
    8.5991    3.2500    0.0000 C   0  0  0  0  0  0  0  0  0  0  0  0
    8.5991    4.2500    0.0000 C   0  0  0  0  0  0  0  0  0  0  0  0
    7.7331    2.7500    0.0000 C   0  0  0  0  0  0  0  0  0  0  0  0
    6.8671    3.2500    0.0000 C   0  0  0  0  0  0  0  0  0  0  0  0
    9.4651    4.7500    0.0000 C   0  0  0  0  0  0  0  0  0  0  0  0
    6.8671    4.2500    0.0000 C   0  0  0  0  0  0  0  0  0  0  0  0
    5.9731    2.7153    0.0000 C   0  0  0  0  0  0  0  0  0  0  0  0
    5.9731    4.7847    0.0000 C   0  0  0  0  0  0  0  0  0  0  0  0
    9.4651    5.7500    0.0000 C   0  0  0  0  0  0  0  0  0  0  0  0
   10.3312    4.2500    0.0000 C   0  0  0  0  0  0  0  0  0  0  0  0
    5.0670    3.2292    0.0000 C   0  0  0  0  0  0  0  0  0  0  0  0
    5.0670    4.2708    0.0000 C   0  0  0  0  0  0  0  0  0  0  0  0
   10.3312    6.2500    0.0000 C   0  0  0  0  0  0  0  0  0  0  0  0
   11.1972    4.7500    0.0000 C   0  0  0  0  0  0  0  0  0  0  0  0
   11.1972    5.7500    0.0000 C   0  0  0  0  0  0  0  0  0  0  0  0
    5.4641   -3.5600    0.0000 H   0  0  0  0  0  0  0  0  0  0  0  0
    6.8671   -3.3700    0.0000 H   0  0  0  0  0  0  0  0  0  0  0  0
    4.5981   -2.4400    0.0000 H   0  0  0  0  0  0  0  0  0  0  0  0
    7.4040   -2.0600    0.0000 H   0  0  0  0  0  0  0  0  0  0  0  0
    5.1350   -1.1300    0.0000 H   0  0  0  0  0  0  0  0  0  0  0  0
    5.1350   -4.1300    0.0000 H   0  0  0  0  0  0  0  0  0  0  0  0
    5.1350   -6.3700    0.0000 H   0  0  0  0  0  0  0  0  0  0  0  0
    3.7320   -6.5600    0.0000 H   0  0  0  0  0  0  0  0  0  0  0  0
    3.4030   -6.3700    0.0000 H   0  0  0  0  0  0  0  0  0  0  0  0
    8.0622    0.5600    0.0000 H   0  0  0  0  0  0  0  0  0  0  0  0
    3.4030   -4.1300    0.0000 H   0  0  0  0  0  0  0  0  0  0  0  0
   10.0021   -0.5600    0.0000 H   0  0  0  0  0  0  0  0  0  0  0  0
   10.8681    0.5600    0.0000 H   0  0  0  0  0  0  0  0  0  0  0  0
    7.5210    0.3326    0.0000 H   0  0  0  0  0  0  0  0  0  0  0  0
    7.1225   -0.3577    0.0000 H   0  0  0  0  0  0  0  0  0  0  0  0
   10.8681    0.9400    0.0000 H   0  0  0  0  0  0  0  0  0  0  0  0
   10.0021    2.0600    0.0000 H   0  0  0  0  0  0  0  0  0  0  0  0
    4.5790   -0.7131    0.0000 H   0  0  0  0  0  0  0  0  0  0  0  0
    3.7320   -0.9400    0.0000 H   0  0  0  0  0  0  0  0  0  0  0  0
    3.9590   -1.7869    0.0000 H   0  0  0  0  0  0  0  0  0  0  0  0
    1.9264   -4.1423    0.0000 H   0  0  0  0  0  0  0  0  0  0  0  0
    2.3249   -4.8326    0.0000 H   0  0  0  0  0  0  0  0  0  0  0  0
    8.2700   -2.9400    0.0000 H   0  0  0  0  0  0  0  0  0  0  0  0
    3.7320   -2.9400    0.0000 H   0  0  0  0  0  0  0  0  0  0  0  0
    6.0010   -6.8700    0.0000 H   0  0  0  0  0  0  0  0  0  0  0  0
    3.7320   -7.5600    0.0000 H   0  0  0  0  0  0  0  0  0  0  0  0
    2.0000   -5.9400    0.0000 H   0  0  0  0  0  0  0  0  0  0  0  0
    8.9282   -1.5600    0.0000 H   0  0  0  0  0  0  0  0  0  0  0  0
   11.1972   -0.8700    0.0000 H   0  0  0  0  0  0  0  0  0  0  0  0
   11.7341    1.4400    0.0000 H   0  0  0  0  0  0  0  0  0  0  0  0
    2.0000   -2.9400    0.0000 H   0  0  0  0  0  0  0  0  0  0  0  0
    5.9803    5.4046    0.0000 H   0  0  0  0  0  0  0  0  0  0  0  0
    8.9282    6.0600    0.0000 H   0  0  0  0  0  0  0  0  0  0  0  0
   10.3312    3.6300    0.0000 H   0  0  0  0  0  0  0  0  0  0  0  0
    4.5313    2.9171    0.0000 H   0  0  0  0  0  0  0  0  0  0  0  0
   11.7341    4.4400    0.0000 H   0  0  0  0  0  0  0  0  0  0  0  0
    5.4514    1.3992    0.0000 H   0  0  0  0  0  0  0  0  0  0  0  0
    3.6648    4.4662    0.0000 H   0  0  0  0  0  0  0  0  0  0  0  0
    9.7942    7.5600    0.0000 H   0  0  0  0  0  0  0  0  0  0  0  0
   12.0632    6.8700    0.0000 H   0  0  0  0  0  0  0  0  0  0  0  0
 22  1  1  1  0  0  0
 27  1  1  1  0  0  0
  2 25  1  0  0  0  0
  2 26  1  0  0  0  0
  3 27  1  0  0  0  0
  3 32  1  0  0  0  0
 25  4  1  1  0  0  0
  4 35  1  0  0  0  0
  5 31  1  0  0  0  0
  5 37  1  0  0  0  0
  6 23  1  0  0  0  0
  6 77  1  0  0  0  0
 24  7  1  1  0  0  0
  7 78  1  0  0  0  0
  8 28  1  0  0  0  0
  8 79  1  0  0  0  0
 29  9  1  1  0  0  0
  9 80  1  0  0  0  0
 30 10  1  6  0  0  0
 10 81  1  0  0  0  0
 33 11  1  1  0  0  0
 11 82  1  0  0  0  0
 12 34  1  0  0  0  0
 12 83  1  0  0  0  0
 37 13  1  1  0  0  0
 13 40  1  0  0  0  0
 14 36  1  0  0  0  0
 14 84  1  0  0  0  0
 15 39  1  0  0  0  0
 15 85  1  0  0  0  0
 16 41  1  0  0  0  0
 16 45  1  0  0  0  0
 17 42  2  0  0  0  0
 18 46  1  0  0  0  0
 18 91  1  0  0  0  0
 19 51  1  0  0  0  0
 19 92  1  0  0  0  0
 20 52  1  0  0  0  0
 20 93  1  0  0  0  0
 21 54  1  0  0  0  0
 21 94  1  0  0  0  0
 22 23  1  0  0  0  0
 22 24  1  0  0  0  0
 22 55  1  0  0  0  0
 23 25  1  0  0  0  0
 23 56  1  0  0  0  0
 24 26  1  0  0  0  0
 24 57  1  0  0  0  0
 25 58  1  0  0  0  0
 26 38  1  0  0  0  0
 26 59  1  0  0  0  0
 27 28  1  0  0  0  0
 27 60  1  0  0  0  0
 28 29  1  0  0  0  0
 28 61  1  0  0  0  0
 29 30  1  0  0  0  0
 29 62  1  0  0  0  0
 30 32  1  0  0  0  0
 30 63  1  0  0  0  0
 31 33  1  0  0  0  0
 31 35  1  0  0  0  0
 31 64  1  0  0  0  0
 32 39  1  0  0  0  0
 32 65  1  0  0  0  0
 33 34  1  0  0  0  0
 33 66  1  0  0  0  0
 34 36  1  0  0  0  0
 34 67  1  0  0  0  0
 35 68  1  0  0  0  0
 35 69  1  0  0  0  0
 36 37  1  0  0  0  0
 36 70  1  0  0  0  0
 37 71  1  0  0  0  0
 38 72  1  0  0  0  0
 38 73  1  0  0  0  0
 38 74  1  0  0  0  0
 39 75  1  0  0  0  0
 39 76  1  0  0  0  0
 40 41  2  0  0  0  0
 40 42  1  0  0  0  0
 41 44  1  0  0  0  0
 42 43  1  0  0  0  0
 43 45  1  0  0  0  0
 43 46  2  0  0  0  0
 44 48  2  0  0  0  0
 44 49  1  0  0  0  0
 45 47  2  0  0  0  0
 46 50  1  0  0  0  0
 47 51  1  0  0  0  0
 47 86  1  0  0  0  0
 48 52  1  0  0  0  0
 48 87  1  0  0  0  0
 49 53  2  0  0  0  0
 49 88  1  0  0  0  0
 50 51  2  0  0  0  0
 50 89  1  0  0  0  0
 52 54  2  0  0  0  0
 53 54  1  0  0  0  0
 53 90  1  0  0  0  0
M  END
> <PUBCHEM_COMPOUND_CID>
44259105

> <PUBCHEM_COMPOUND_CANONICALIZED>
1

> <PUBCHEM_CACTVS_COMPLEXITY>
1320

> <PUBCHEM_CACTVS_HBOND_ACCEPTOR>
21

> <PUBCHEM_CACTVS_HBOND_DONOR>
13

> <PUBCHEM_CACTVS_ROTATABLE_BOND>
9

> <PUBCHEM_CACTVS_SUBSKEYS>
AAADcfB8PgAAAAAAAAAAAAAAAAAAAAAAAAA0aJECAAAAAACBQAAAGgAACAAADBSwmAMyDoAABgCIAqBSAAICCAAkIAAIiAFGiMgdNzaGNR6ieWGl4BUPuQfI7LzOIAABCAAIQABAAAIQABCAAAAAAAAAAA==

> <PUBCHEM_IUPAC_OPENEYE_NAME>
3-[(2S,5R)-6-[[(2R,4S,5S)-3,5-dihydroxy-6-methyl-4-[(2S,4S,5S)-3,4,5-trihydroxy-6-(hydroxymethyl)tetrahydropyran-2-yl]oxy-tetrahydropyran-2-yl]oxymethyl]-3,4,5-trihydroxy-tetrahydropyran-2-yl]oxy-2-(3,4-dihydroxyphenyl)-5,7-dihydroxy-chromen-4-one

> <PUBCHEM_IUPAC_CAS_NAME>
3-[[(2S,5R)-6-[[(2R,4S,5S)-3,5-dihydroxy-6-methyl-4-[[(2S,4S,5S)-3,4,5-trihydroxy-6-(hydroxymethyl)-2-oxanyl]oxy]-2-oxanyl]oxymethyl]-3,4,5-trihydroxy-2-oxanyl]oxy]-2-(3,4-dihydroxyphenyl)-5,7-dihydroxy-1-benzopyran-4-one

> <PUBCHEM_IUPAC_NAME_MARKUP>
3-[(2<I>S</I>,5<I>R</I>)-6-[[(2<I>R</I>,4<I>S</I>,5<I>S</I>)-3,5-dihydroxy-6-methyl-4-[(2<I>S</I>,4<I>S</I>,5<I>S</I>)-3,4,5-trihydroxy-6-(hydroxymethyl)oxan-2-yl]oxyoxan-2-yl]oxymethyl]-3,4,5-trihydroxyoxan-2-yl]oxy-2-(3,4-dihydroxyphenyl)-5,7-dihydroxychromen-4-one

> <PUBCHEM_IUPAC_NAME>
3-[(2S,5R)-6-[[(2R,4S,5S)-3,5-dihydroxy-6-methyl-4-[(2S,4S,5S)-3,4,5-trihydroxy-6-(hydroxymethyl)oxan-2-yl]oxyoxan-2-yl]oxymethyl]-3,4,5-trihydroxyoxan-2-yl]oxy-2-(3,4-dihydroxyphenyl)-5,7-dihydroxychromen-4-one

> <PUBCHEM_IUPAC_SYSTEMATIC_NAME>
2-[3,4-bis(oxidanyl)phenyl]-3-[(2S,5R)-6-[[(2R,4S,5S)-4-[(2S,4S,5S)-6-(hydroxymethyl)-3,4,5-tris(oxidanyl)oxan-2-yl]oxy-6-methyl-3,5-bis(oxidanyl)oxan-2-yl]oxymethyl]-3,4,5-tris(oxidanyl)oxan-2-yl]oxy-5,7-bis(oxidanyl)chromen-4-one

> <PUBCHEM_IUPAC_TRADITIONAL_NAME>
3-[(2S,5R)-6-[[(2R,4S,5S)-3,5-dihydroxy-6-methyl-4-[(2S,4S,5S)-3,4,5-trihydroxy-6-methylol-tetrahydropyran-2-yl]oxy-tetrahydropyran-2-yl]oxymethyl]-3,4,5-trihydroxy-tetrahydropyran-2-yl]oxy-2-(3,4-dihydroxyphenyl)-5,7-dihydroxy-chromone

> <PUBCHEM_IUPAC_INCHI>
InChI=1S/C33H40O21/c1-9-19(39)29(53-32-25(45)23(43)20(40)16(7-34)51-32)27(47)31(49-9)48-8-17-21(41)24(44)26(46)33(52-17)54-30-22(42)18-14(38)5-11(35)6-15(18)50-28(30)10-2-3-12(36)13(37)4-10/h2-6,9,16-17,19-21,23-27,29,31-41,43-47H,7-8H2,1H3/t9?,16?,17?,19-,20+,21-,23-,24?,25?,26?,27?,29-,31+,32-,33-/m0/s1

> <PUBCHEM_IUPAC_INCHIKEY>
XEFNBVWDOQCMSG-LKPCAPHHSA-N

> <PUBCHEM_XLOGP3_AA>
-2.9

> <PUBCHEM_EXACT_MASS>
772.20620828

> <PUBCHEM_MOLECULAR_FORMULA>
C33H40O21

> <PUBCHEM_MOLECULAR_WEIGHT>
772.7

> <PUBCHEM_OPENEYE_CAN_SMILES>
CC1C(C(C(C(O1)OCC2C(C(C(C(O2)OC3=C(OC4=CC(=CC(=C4C3=O)O)O)C5=CC(=C(C=C5)O)O)O)O)O)O)OC6C(C(C(C(O6)CO)O)O)O)O

> <PUBCHEM_OPENEYE_ISO_SMILES>
CC1[C@@H]([C@@H](C([C@@H](O1)OCC2[C@@H](C(C([C@@H](O2)OC3=C(OC4=CC(=CC(=C4C3=O)O)O)C5=CC(=C(C=C5)O)O)O)O)O)O)O[C@H]6C([C@H]([C@@H](C(O6)CO)O)O)O)O

> <PUBCHEM_CACTVS_TPSA>
345

> <PUBCHEM_MONOISOTOPIC_WEIGHT>
772.20620828

> <PUBCHEM_TOTAL_CHARGE>
0

> <PUBCHEM_HEAVY_ATOM_COUNT>
54

> <PUBCHEM_ATOM_DEF_STEREO_COUNT>
8

> <PUBCHEM_ATOM_UDEF_STEREO_COUNT>
7

> <PUBCHEM_BOND_DEF_STEREO_COUNT>
0

> <PUBCHEM_BOND_UDEF_STEREO_COUNT>
0

> <PUBCHEM_ISOTOPIC_ATOM_COUNT>
0

> <PUBCHEM_COMPONENT_COUNT>
1

> <PUBCHEM_CACTVS_TAUTO_COUNT>
-1

> <PUBCHEM_COORDINATE_TYPE>
1
5
255

> <PUBCHEM_BONDANNOTATIONS>
22  1  5
27  1  5
30  10  6
33  11  5
34  12  3
37  13  5
36  14  3
16  41  8
16  45  8
26  38  3
31  35  3
32  39  3
25  4  5
40  41  8
40  42  8
42  43  8
43  45  8
43  46  8
44  48  8
44  49  8
45  47  8
46  50  8
47  51  8
48  52  8
49  53  8
50  51  8
52  54  8
53  54  8
23  6  3
24  7  5
28  8  3
29  9  5

$$$$
